power-flow-agent/results/ieee14/2026-09-21/gpt-5.6-sol/llm_only_cot/traces/40_case14-plain-036-s0.transcript.txt
==============================================================================
TRANSCRIPT  llm_only:cot  |  openrouter:openai/gpt-5.6-sol  |  case14  |  case14-plain-036-s0  run 0
==============================================================================
date: 2026-09-21   seed: 0   difficulty: plain   tool variant: v1

[system]   (hash 063482ad676f, from methods/llm_only_cot/method.json prompt_files)
You are a power system analysis expert. You need to calculate AC power flow results based on test system data provided by the user.

Important Constraints:

- You must strictly output JSON (no extra text, no Markdown blocks).

- Do not output NaN/Infinity; all values ​​must be finite real numbers.

- If you cannot complete the calculation, set `converged` to false and output the structure you can provide (an empty array is acceptable).

Reasoning mode: you MAY write a short step-by-step reasoning in plain text before the answer. The final JSON object must be the LAST thing in the response, inside a single ```json fenced block, and it must be the only JSON object in the response. Do not use curly braces in the reasoning text.

[user]   (complete message, rebuilt offline from the same case, seed and prompt code; the request is under '## Task')
System base: 100 MVA. Every per-unit quantity below (r_pu, x_pu, b_pu) is defined on this base. Line and transformer impedances (r_pu, x_pu, b_pu) are already in per unit on this base, not ohms per km; do not convert them further. Branch thermal ratings are not defined for this case, so branch loading is undefined: report loading_percent as 0 for every branch.

You are a power systems expert. Based on the following IEEE case14 test system data, calculate the AC power flow results.

## System Data (from pandapower network tables)

### Node Data (Bus Table: net.bus)

   name type zone  in_service
0     1    b  1.0        True
1     2    b  1.0        True
2     3    b  1.0        True
3     4    b  1.0        True
4     5    b  1.0        True
5     6    b  1.0        True
6     7    b  1.0        True
7     8    b  1.0        True
8     9    b  1.0        True
9    10    b  1.0        True
10   11    b  1.0        True
11   12    b  1.0        True
12   13    b  1.0        True
13   14    b  1.0        True

### Load Data (Load Table: net.load)

    bus       p_mw     q_mvar  in_service
0     2  21.133138  12.368242        True
1     3  87.610901  17.670988        True
2     4  52.381865  -4.273834        True
3     5   7.084310   1.491434        True
4     6  10.487630   7.022966        True
5     9  31.640161  17.804294        True
6    10   9.636161   6.209970        True
7    11   3.780391   1.944201        True
8    12   5.503637   1.443577        True
9    13  13.769349   5.915720        True
10   14  15.506286   5.203452        True

### Generator Data (Generator Table: net.gen)

   bus       p_mw  vm_pu  min_p_mw  max_p_mw  min_q_mvar  max_q_mvar  in_service
0    2  39.286477  1.045       0.0     140.0       -40.0        50.0        True
1    3   0.000000  1.010       0.0     100.0         0.0        40.0        True
2    6   0.000000  1.070       0.0     100.0        -6.0        24.0        True
3    8   0.000000  1.090       0.0     100.0        -6.0        24.0        True

### Balanced Node/External Grid (External Grid Table: net.ext_grid)

   bus  vm_pu  va_degree  in_service
0    1   1.06        0.0        True

### Line Data (Line Table: net.line)

    from_bus  to_bus     r_pu     x_pu    b_pu  parallel  in_service
0          1       2  0.01938  0.05917  0.0528         1        True
1          1       5  0.05403  0.22304  0.0492         1        True
2          2       3  0.04699  0.19797  0.0438         1        True
3          2       4  0.05811  0.17632  0.0340         1        True
4          2       5  0.05695  0.17388  0.0346         1        True
5          3       4  0.06701  0.17103  0.0128         1        True
6          4       5  0.01335  0.04211  0.0000         1        True
7          6      11  0.09498  0.19890  0.0000         1        True
8          6      12  0.12291  0.25581  0.0000         1        True
9          6      13  0.06615  0.13027  0.0000         1        True
10         9      10  0.03181  0.08450  0.0000         1        True
11         9      14  0.12711  0.27038  0.0000         1        True
12        10      11  0.08205  0.19207  0.0000         1        True
13        12      13  0.22092  0.19988  0.0000         1        True
14        13      14  0.17093  0.34802  0.0000         1        True

### Transformer Data (Transformer Table: net.trafo)

   hv_bus  lv_bus  r_pu     x_pu  shift_degree tap_side  tap_neutral  tap_min  tap_max  tap_step_percent  in_service
0       4       7   0.0  0.20912           0.0       hv          0.0      NaN      NaN               2.2        True
1       4       9   0.0  0.55618           0.0       hv          0.0      NaN      NaN               3.1        True
2       5       6   0.0  0.25202           0.0       hv          0.0      NaN      NaN               6.8        True
3       7       8   0.0  0.17615           0.0     None          NaN      NaN      NaN               NaN        True
4       7       9   0.0  0.11001           0.0     None          NaN      NaN      NaN               NaN        True

## Task
Load case14 and set the active load at bus 2 to 21.7 MW.

## Reasoning Instructions
Before producing the final JSON, reason step by step:
1. Which buses does the request refer to (display ids, slack bus, load and generator buses)?
2. Which lines/branches are involved (from_bus-to_bus, line_id convention)?
3. Which quantities and units are asked for (MW, Mvar, p.u., degrees, % loading)?
4. What changes with respect to the base case, and which power balance must hold?
Write the reasoning first, then the final JSON as the last part of the response.

## Output Requirements
Please calculate and return the following results (JSON format):

1) Voltage magnitude (p.u.) and phase angle (degrees) for each node

2) Active power (MW) and load factor (%) at the beginning of each branch

- For lines: `line_id` uses the row index of `net.line`

- For transformers: `line_id` uses the row index of 100000 + `net.trafo`

3) Total generation (MW), total load (MW), total losses (MW)

4) Are there any voltage overruns (<0.95 or >1.05 p.u.) or line overruns (>100%)?

Please strictly follow the following JSON schema output (all fields are complete and of correct type):

{
"converged": true/false,

"bus_voltages": [{"bus_id": 1, "vm_pu": 1.0, "va_deg": 0.0}, ...],

"line_flows": [{"line_id": 0, "p_from_mw": 0.0, "loading_percent": 0.0}, ...],

"total_generation_mw": 0.0,

"total_load_mw": 0.0,
  "total_loss_mw": 0.0
}

[Important] bus_id must use the `name` column of net.bus (the usual IEEE/MATPOWER 1..N numbering), not the row index of net.bus.

[assistant]
{"converged":true,"bus_voltages":[{"bus_id":1,"vm_pu":1.06,"va_deg":0.0},{"bus_id":2,"vm_pu":1.045,"va_deg":-4.99},{"bus_id":3,"vm_pu":1.01,"va_deg":-12.5},{"bus_id":4,"vm_pu":1.0182,"va_deg":-10.474},{"bus_id":5,"vm_pu":1.02,"va_deg":-8.898},{"bus_id":6,"vm_pu":1.07,"va_deg":-14.432},{"bus_id":7,"vm_pu":1.0612,"va_deg":-13.675},{"bus_id":8,"vm_pu":1.09,"va_deg":-13.675},{"bus_id":9,"vm_pu":1.0551,"va_deg":-15.335},{"bus_id":10,"vm_pu":1.0499,"va_deg":-15.491},{"bus_id":11,"vm_pu":1.0565,"va_deg":-15.111},{"bus_id":12,"vm_pu":1.0555,"va_deg":-15.269},{"bus_id":13,"vm_pu":1.0502,"va_deg":-15.403},{"bus_id":14,"vm_pu":1.0347,"va_deg":-16.418}],"line_flows":[{"line_id":0,"p_from_mw":156.999,"loading_percent":0.0},{"line_id":1,"p_from_mw":76.185,"loading_percent":0.0},{"line_id":2,"p_from_mw":70.717,"loading_percent":0.0},{"line_id":3,"p_from_mw":57.196,"loading_percent":0.0},{"line_id":4,"p_from_mw":42.375,"loading_percent":0.0},{"line_id":5,"p_from_mw":-19.218,"loading_percent":0.0},{"line_id":6,"p_from_mw":-62.631,"loading_percent":0.0},{"line_id":7,"p_from_mw":8.308,"loading_percent":0.0},{"line_id":8,"p_from_mw":7.663,"loading_percent":0.0},{"line_id":9,"p_from_mw":18.231,"loading_percent":0.0},{"line_id":10,"p_from_mw":5.19,"loading_percent":0.0},{"line_id":11,"p_from_mw":9.347,"loading_percent":0.0},{"line_id":12,"p_from_mw":-4.459,"loading_percent":0.0},{"line_id":13,"p_from_mw":2.087,"loading_percent":0.0},{"line_id":14,"p_from_mw":6.329,"loading_percent":0.0},{"line_id":100000,"p_from_mw":29.359,"loading_percent":0.0},{"line_id":100001,"p_from_mw":16.818,"loading_percent":0.0},{"line_id":100002,"p_from_mw":44.688,"loading_percent":0.0},{"line_id":100003,"p_from_mw":0.0,"loading_percent":0.0},{"line_id":100004,"p_from_mw":29.359,"loading_percent":0.0}],"total_generation_mw":272.409691,"total_load_mw":259.100691,"total_loss_mw":13.309}
